Version 4
SHEET 1 880 680
SYMBOL ind 256 48 R0
SYMATTR InstName L1
SYMBOL ind 256 160 R0
SYMATTR InstName L2
SYMBOL ind 400 224 R180
WINDOW 0 36 80 Left 2
WINDOW 3 36 40 Left 2
SYMATTR InstName L3
SYMBOL voltage 192 160 R90
WINDOW 0 -32 56 VBottom 2
WINDOW 3 32 56 VTop 2
SYMATTR InstName V1
