Version 4
SHEET 1 880 680
WIRE 48 -128 32 -128
WIRE 304 -112 304 -176
WIRE 528 -64 528 -96
WIRE 528 -64 368 -64
WIRE 32 -32 32 -128
WIRE 528 -32 528 -64
WIRE 304 0 304 -16
WIRE 32 96 32 48
WIRE 80 96 32 96
WIRE 304 96 304 80
WIRE 304 96 272 96
WIRE 528 96 528 48
WIRE 80 192 32 192
WIRE 336 192 272 192
WIRE 32 256 32 192
WIRE 80 256 32 256
WIRE 336 272 336 192
WIRE 80 288 80 256
FLAG 80 288 0
FLAG 128 -128 0
FLAG 384 -176 0
FLAG 336 272 0
FLAG 528 96 0
SYMBOL ZZZ\\OPTO\\pc357nt 176 144 M0
SYMATTR InstName U1
SYMBOL res 16 -48 R0
SYMATTR InstName R1
SYMBOL voltage 32 -128 R270
WINDOW 0 32 56 VTop 2
WINDOW 3 -32 56 VBottom 2
SYMATTR InstName V1
SYMBOL voltage 288 -176 R270
WINDOW 0 32 56 VTop 2
WINDOW 3 -32 56 VBottom 2
SYMATTR InstName V2
SYMBOL npn 368 -112 M0
SYMATTR InstName Q1
SYMBOL res 288 -16 R0
SYMATTR InstName R2
SYMATTR Value 1k
SYMBOL res 512 -192 R0
SYMATTR InstName R3
SYMBOL res 512 -48 R0
SYMATTR InstName R4
