Version 4
SHEET 1 880 724
WIRE 448 -272 448 -384
WIRE 384 -224 256 -224
WIRE 576 -192 544 -192
WIRE 688 -192 640 -192
WIRE 448 -96 448 -176
WIRE 544 -96 544 -192
WIRE 544 -96 448 -96
WIRE 576 -96 544 -96
WIRE 688 -96 688 -192
WIRE 688 -96 656 -96
WIRE 752 -96 688 -96
WIRE 448 -16 448 -96
WIRE 752 16 752 -32
WIRE 256 32 256 -224
WIRE 384 32 256 32
WIRE -816 48 -816 -16
WIRE -512 80 -544 80
WIRE -416 80 -416 0
WIRE -416 80 -432 80
WIRE -352 80 -416 80
WIRE -64 80 -64 0
WIRE -64 80 -128 80
WIRE 448 128 448 80
WIRE -544 144 -544 80
WIRE -544 144 -640 144
WIRE -352 144 -544 144
WIRE 96 144 -128 144
WIRE -640 160 -640 144
WIRE -544 160 -544 144
WIRE -816 192 -816 128
WIRE -352 208 -464 208
WIRE 256 208 256 32
WIRE 256 208 -128 208
WIRE -640 256 -640 224
WIRE -544 256 -544 240
WIRE -544 256 -640 256
WIRE -464 256 -464 208
WIRE -464 256 -544 256
WIRE -352 272 -400 272
WIRE -64 272 -128 272
WIRE 480 304 480 224
WIRE -64 320 -64 272
WIRE -544 352 -544 320
WIRE -400 352 -400 336
WIRE 256 352 256 208
WIRE 304 352 256 352
WIRE 416 352 384 352
WIRE 640 352 608 352
WIRE 752 352 704 352
WIRE -464 448 -464 256
WIRE 96 448 96 144
WIRE 96 448 -464 448
WIRE 480 448 480 400
WIRE 608 448 608 352
WIRE 608 448 480 448
WIRE 640 448 608 448
WIRE 752 448 752 352
WIRE 752 448 720 448
WIRE 816 448 752 448
WIRE 480 496 480 448
WIRE 256 544 256 352
WIRE 304 544 256 544
WIRE 416 544 384 544
WIRE 816 560 816 512
WIRE 480 704 480 592
FLAG -416 0 VCC
FLAG -816 -16 VCC
FLAG -816 192 0
FLAG -64 0 0
FLAG -64 320 VCC
FLAG -544 352 0
FLAG -400 352 0
FLAG 448 -384 VCC
FLAG 448 128 0
FLAG 752 16 0
FLAG 480 224 VCC
FLAG 480 704 0
FLAG 816 560 0
SYMBOL ZZZ\\TIMER\\555 -240 176 M0
SYMATTR InstName U1
SYMBOL voltage -816 32 M0
WINDOW 123 0 0 Left 0
WINDOW 39 0 0 Left 0
SYMATTR InstName V1
SYMATTR Value 12
SYMBOL cap -528 256 M0
SYMATTR InstName C1
SYMATTR Value 1µ
SYMBOL res -528 144 M0
SYMATTR InstName R2
SYMATTR Value 1k
SYMBOL cap -384 272 M0
SYMATTR InstName C2
SYMATTR Value 0.1µ
SYMBOL res -528 64 M90
WINDOW 0 0 56 VBottom 2
WINDOW 3 32 56 VTop 2
SYMATTR InstName R3
SYMATTR Value 1k
SYMBOL diode -624 160 M0
SYMATTR InstName D1
SYMATTR Value 1N4007
SYMBOL npn 384 -272 R0
SYMATTR InstName Q1
SYMATTR Value 2N2222
SYMBOL npn 416 496 R0
SYMATTR InstName Q2
SYMATTR Value 2N2222
SYMBOL pnp 384 80 M180
SYMATTR InstName Q3
SYMATTR Value BCW68G
SYMBOL pnp 416 400 M180
SYMATTR InstName Q4
SYMATTR Value BCW68G
SYMBOL res 672 -112 R90
WINDOW 0 0 56 VBottom 2
WINDOW 3 32 56 VTop 2
SYMATTR InstName R1
SYMATTR Value 10
SYMBOL diode 640 -208 R90
WINDOW 0 0 32 VBottom 2
WINDOW 3 32 32 VTop 2
SYMATTR InstName D2
SYMATTR Value 1N4007
SYMBOL cap 736 -96 R0
SYMATTR InstName C3
SYMATTR Value 2n
SYMBOL res 400 336 R90
WINDOW 0 0 56 VBottom 2
WINDOW 3 32 56 VTop 2
SYMATTR InstName R4
SYMATTR Value 1k
SYMBOL res 400 528 R90
WINDOW 0 0 56 VBottom 2
WINDOW 3 32 56 VTop 2
SYMATTR InstName R5
SYMATTR Value 1k
SYMBOL res 736 432 R90
WINDOW 0 0 56 VBottom 2
WINDOW 3 32 56 VTop 2
SYMATTR InstName R6
SYMATTR Value 10
SYMBOL diode 704 336 R90
WINDOW 0 0 32 VBottom 2
WINDOW 3 32 32 VTop 2
SYMATTR InstName D3
SYMATTR Value 1N4007
SYMBOL cap 800 448 R0
SYMATTR InstName C4
SYMATTR Value 2n
TEXT 96 456 Right 2 !.tran 20m
